*SRC=B160;DI_B160;Diodes;Si;  60.0V  1.00A  5.00ns   Diodes Inc. Schottky
.MODEL DI_B160 D  ( IS=15.7u RS=42.0m BV=60.0 IBV=500u
+ CJO=133p  M=0.333 N=1.70 TT=7.20n )