.MODEL 0603_150060RS75000 D (
+ IS=981.11E-18
+ N=2.4704
+ RS=2.6193
+ CJO=4.4898E-9
+ M=.1001
+ VJ=9.9900
)